%chk=c8h18_3.chk
%nproc=8
%mem=1gb
#p  hf/6-31g** 5d pop=npa charge nosymm 

Atom number=14

0   1
c    -5.70723204    0.03769590   -0.54181040
c    -5.19388883    0.76318274   -1.79948587
c    -3.65389160    0.76570489   -1.79801945
c    -3.14054837    1.49117995   -3.05570171
h    -6.77723027    0.03601484   -0.54278818
h    -5.34898230   -0.97054777   -0.54045470
h    -5.35215751    0.54354861    0.33165117
h    -5.55220656    1.77140219   -1.80088226
h    -5.54889583    0.25728268   -2.67294747
h    -3.29557473   -0.24251485   -1.79661310
h    -3.29888438    1.27161321   -0.92456273
h    -3.49886752    2.49939888   -3.05710842
h    -3.49555393    0.98527070   -3.92915857
h    -2.07055029    1.49293387   -3.05468197

   -7.76057171    -0.69067984     0.71418730    -0.633884   
   -7.40391729    -1.69948984     0.71418730     0.210445   
   -7.40389887    -0.18628165     1.58783880     0.210434   
   -8.83057171    -0.69066666     0.71418730     0.214544   
   -7.24722949     0.03527643    -0.54321767    -0.418003   
   -7.60548042     1.04352011    -0.54419642     0.210745   
   -7.60230413    -0.47025036    -1.41686787     0.210752   
   -1.60055114     1.49370428    -3.05423405    -0.418003   
   -1.24223284     0.48548505    -3.05282856     0.210748   
   -1.24554535     1.99961210    -2.18077645     0.210748   
   -1.08720791     2.21918152    -4.31191505    -0.633884   
   -1.44552563     3.22740096    -4.31331914     0.210439   
   -0.01720983     2.22093391    -4.31089618     0.214544   
   -1.44221491     1.71327480    -5.18537279     0.210439   


