%chk=1.chk
#p hf/3-21g

title

0 1
 C                 -2.74964843   -1.20242858   -0.01574065
 H                 -2.39299400   -2.21123858   -0.01574065
 H                 -2.39297559   -0.69803039   -0.88939216
 H                 -3.81964843   -1.20241540   -0.01574065
 C                 -2.23630621   -0.47647231    1.24166432
 H                 -1.16630802   -0.47817937    1.24264267
 C                 -2.74732219    0.97627016    1.24025761
 H                 -3.81731997    0.97797611    1.23890271
 H                 -2.39095675    1.48056040    2.11409686
 H                 -2.38874623    1.47964657    0.36679584
 C                 -2.75194565   -1.20080194    2.49906742
 H                 -2.39709800   -2.21024854    2.49991642
 H                 -2.39506423   -0.69655123    3.37271887
 H                 -3.82194357   -1.19887384    2.49821678

