%chk=1.chk
#p hf/3-21g

title

0 1
 C                 -6.44811135    0.17580872   -0.08441040
 H                 -6.09145693   -0.83300128   -0.08441040
 H                 -6.09143851    0.68020691    0.78924110
 H                 -7.51811135    0.17582190   -0.08441040
 C                 -5.93476913    0.90176499   -1.34181537
 H                 -6.29302006    1.91000867   -1.34279412
 H                 -6.28984377    0.39623820   -2.21546557
 C                 -4.39477168    0.90418446   -1.34040810
 H                 -4.03652194   -0.10405921   -1.33905240
 C                 -3.88142847    1.62967130   -2.59808357
 H                 -4.23974620    2.63789075   -2.59947996
 H                 -4.23643547    1.12377124   -3.47154517
 C                 -2.34143123    1.63219345   -2.59661716
 H                 -1.98311436    0.62397371   -2.59521080
 H                 -1.98475769    2.13625729   -3.47046133
 H                 -1.98642401    2.13810177   -1.72316044
 C                 -3.88372983    1.63223415   -0.08327649
 H                 -2.81373150    1.63381186   -0.08223953
 H                 -4.24188291    2.64051208   -0.08469166
 H                 -4.24050073    1.12823100    0.79056293

