%chk=32ane_4.chk
%nproc=6
#p  hf/6-31g(d) 5d 7f nosymm 

Atom number=38

0   1
c     4.47432900    0.40954600    0.00012600
c     3.19418000   -0.42814300   -0.00015600
c     1.91814500    0.41580000    0.00012400
c     0.63800000   -0.42189500   -0.00014900
c    -0.63803800    0.42203700    0.00011000
c    -1.91817800   -0.41565800   -0.00006500
c    -3.19421800    0.42826100   -0.00005900
c    -4.47435300   -0.40944400   -0.00006300
c    -5.75039300    0.43447700   -0.00004400
c    -7.03052500   -0.40323000    0.00003000
c    -8.30656200    0.44069200   -0.00019000
c    -9.58668900   -0.39702200    0.00005300
h     5.36679422   -0.18071309   -0.00007123
h   -10.47915970    0.19322882   -0.00009178
h    -4.47593600   -1.06326600    0.87054800
h     0.63640300   -1.07597300    0.87026800
h     4.47593000    1.06364000   -0.87027800
h     4.47592900    1.06305600    0.87096800
h     3.19258100   -1.08165400   -0.87099700
h     3.19257900   -1.08223500    0.87025000
h     1.91974400    1.06931600    0.87096200
h     1.91974200    1.06988700   -0.87028600
h     0.63641000   -1.07542200   -0.87097900
h    -0.63646500    1.07607600   -0.87033800
h    -0.63641700    1.07561500    0.87090400
h    -1.91971300   -1.06937400   -0.87075500
h    -1.91982100   -1.06955800    0.87048700
h    -3.19263400    1.08207200    0.87056000
h    -3.19263400    1.08206900   -0.87068100
h    -4.47594800   -1.06323800   -0.87069600
h    -5.74883300    1.08826300   -0.87068200
h    -5.74877600    1.08830600    0.87056200
h    -7.03206600   -1.05719000   -0.87047600
h    -7.03215800   -1.05688300    0.87076800
h    -8.30497300    1.09474700    0.87024600
h    -8.30498800    1.09425200   -0.87099700
h    -9.58829300   -1.05105900   -0.87039600
h    -9.58826600   -1.05059600    0.87085000


