%chk=32ane_11.chk
%nproc=6
#p  hf/6-31g(d) 5d 7f nosymm 

Atom number=26

0   1
c    -5.75039300    0.43447700   -0.00004400
c    -7.03052500   -0.40323000    0.00003000
c    -8.30656200    0.44069200   -0.00019000
c    -9.58668900   -0.39702200    0.00005300
c   -10.86272300    0.44690500   -0.00015400
c   -12.14284400   -0.39081400    0.00016800
c   -13.41886700    0.45312400   -0.00028000
c   -14.69896800   -0.38462100    0.00021100
h    -4.85791909   -0.15576898   -0.00005729
h   -15.59142625    0.20564858   -0.00009324
h   -14.70057400   -1.03792600    0.87119700
h    -5.74883300    1.08826300   -0.87068200
h    -5.74877600    1.08830600    0.87056200
h    -7.03206600   -1.05719000   -0.87047600
h    -7.03215800   -1.05688300    0.87076800
h    -8.30497300    1.09474700    0.87024600
h    -8.30498800    1.09425200   -0.87099700
h    -9.58829300   -1.05105900   -0.87039600
h    -9.58826600   -1.05059600    0.87085000
h   -10.86117400    1.10044200   -0.87097800
h   -10.86110200    1.10097700    0.87026800
h   -12.14439800   -1.04501500   -0.87015600
h   -12.14447500   -1.04421500    0.87109200
h   -13.41728200    1.10741500    0.86997600
h   -13.41731200    1.10642900   -0.87127600
h   -14.70061600   -1.03888100   -0.87005700


