%chk=32ane_1.chk
%nproc=6
#p  hf/6-31g(d) 5d 7f nosymm 

Atom number=38

0   1
c    19.80586600    0.37882300    0.00017800
c    18.53160000   -0.46501800   -0.00011500
c    17.25509000    0.37808100    0.00016400
c    15.97500600   -0.45943400   -0.00012700
c    14.69899600    0.38454900    0.00015300
c    13.41887800   -0.45317600   -0.00013700
c    12.14286100    0.39079000    0.00014300
c    10.86272100   -0.44691200   -0.00014600
c     9.58669200    0.39704000    0.00013500
c     8.30654600   -0.44065400   -0.00015300
c     7.03051200    0.40329200    0.00012900
c     5.75036300   -0.43439800   -0.00015600
h     4.85789778    0.15586109    0.00004123
h    20.69309000   -0.24698600   -0.00003000
h    19.85249000    1.01879300   -0.87652800
h    19.85248100    1.01819700    0.87731800
h    18.53164300   -1.11765200   -0.87065100
h    18.53163400   -1.11824300    0.86997700
h    17.25772600    1.03171700    0.87105100
h    17.25773500    1.03230800   -0.87027900
h    15.97347900   -1.11291600   -0.87100400
h    15.97347000   -1.11350700    0.87030700
h    14.70064100    1.03862000   -0.87025400
h    14.70063200    1.03803000    0.87100400
h    13.41729500   -1.10667000   -0.87098800
h    13.41728700   -1.10726000    0.87027000
h    12.14446500    1.04428900    0.87099000
h    12.14447200    1.04487800   -0.87026200
h    10.86112900   -1.10041400   -0.87099200
h    10.86112200   -1.10100300    0.87025800
h     9.58829800    1.05113200   -0.87026900
h     9.58829200    1.05054400    0.87098000
h     8.30495100   -1.09416000   -0.87099800
h     8.30494500   -1.09474800    0.87025000
h     7.03211200    1.05679900    0.87097300
h     7.03211600    1.05738600   -0.87027400
h     5.74876600   -1.08790600   -0.87100100
h     5.74876200   -1.08849300    0.87024600


