%chk=32ane_2.chk
%nproc=6
#p  hf/6-31g(d) 5d 7f nosymm 

Atom number=38

0   1
c    14.69899600    0.38454900    0.00015300
c    13.41887800   -0.45317600   -0.00013700
c    12.14286100    0.39079000    0.00014300
c    10.86272100   -0.44691200   -0.00014600
c     9.58669200    0.39704000    0.00013500
c     8.30654600   -0.44065400   -0.00015300
c     7.03051200    0.40329200    0.00012900
c     5.75036300   -0.43439800   -0.00015600
c     4.47432900    0.40954600    0.00012600
c     3.19418000   -0.42814300   -0.00015600
c     1.91814500    0.41580000    0.00012400
c     0.63800000   -0.42189500   -0.00014900
h    15.59144356   -0.20573679   -0.00004283
h    -0.25446993    0.16835697    0.00003215
h     0.63640300   -1.07597300    0.87026800
h    14.70064100    1.03862000   -0.87025400
h    14.70063200    1.03803000    0.87100400
h    13.41729500   -1.10667000   -0.87098800
h    13.41728700   -1.10726000    0.87027000
h    12.14446500    1.04428900    0.87099000
h    12.14447200    1.04487800   -0.87026200
h    10.86112900   -1.10041400   -0.87099200
h    10.86112200   -1.10100300    0.87025800
h     9.58829800    1.05113200   -0.87026900
h     9.58829200    1.05054400    0.87098000
h     8.30495100   -1.09416000   -0.87099800
h     8.30494500   -1.09474800    0.87025000
h     7.03211200    1.05679900    0.87097300
h     7.03211600    1.05738600   -0.87027400
h     5.74876600   -1.08790600   -0.87100100
h     5.74876200   -1.08849300    0.87024600
h     4.47593000    1.06364000   -0.87027800
h     4.47592900    1.06305600    0.87096800
h     3.19258100   -1.08165400   -0.87099700
h     3.19257900   -1.08223500    0.87025000
h     1.91974400    1.06931600    0.87096200
h     1.91974200    1.06988700   -0.87028600
h     0.63641000   -1.07542200   -0.87097900


