%chk=C:\Users\wsr\Desktop\c3.chk
# hf/3-21g geom=connectivity

Title Card Required

0 1
 C                 -6.67377349   -1.71641788    0.00000000
 H                 -6.31711907   -2.72522789    0.00000000
 H                 -6.31710065   -1.21201969   -0.87365150
 H                 -7.74377349   -1.71640470    0.00000000
 C                 -6.16043128   -0.99046161    1.25740497
 H                 -6.51708591    0.01834832    1.25740510
 H                 -6.51710397   -1.49486027    2.13105626
 C                 -4.62043128   -0.99048078    1.25740459
 H                 -4.26375843   -0.48591267    2.13095797
 H                 -4.26377749   -1.99929099    1.25760016
 H                 -4.26375835   -0.48625198    0.38365535

 1 2 1.0 3 1.0 4 1.0 5 1.0
 2
 3
 4
 5 6 1.0 7 1.0 8 1.0
 6
 7
 8 9 1.0 10 1.0 11 1.0
 9
 10
 11

