%chk=E:\2021chun\c2h4.chk
# hf/3-21g geom=connectivity

Title Card Required

0 1
 C                 -1.47121524   -2.20682299    0.00000000
 H                 -0.93805150   -3.13452791    0.00000000
 H                 -2.54121524   -2.20682299    0.00000000
 C                 -0.79594093   -1.03184570    0.00000000
 H                 -1.32910468   -0.10414078    0.00000000
 H                  0.27405907   -1.03184570    0.00000000

 1 2 1.0 3 1.0 4 2.0
 2
 3
 4 5 1.0 6 1.0
 5
 6

