%chk=E:\2021chun\c2h5oh.chk
# hf/3-21g geom=connectivity

Title Card Required

0 1
 C                 -3.30490381   -1.50319827    0.00000000
 H                 -2.94824938   -2.51200827    0.00000000
 H                 -2.94823097   -0.99880008   -0.87365150
 H                 -4.37490381   -1.50318509    0.00000000
 C                 -2.79156159   -0.77724200    1.25740497
 H                 -1.72156161   -0.77742457    1.25750243
 H                 -3.14805664    0.23162433    1.25730739
 O                 -3.26844956   -1.45119406    2.42499500
 H                 -2.94724530   -0.99998167    3.20910928

 1 2 1.0 3 1.0 4 1.0 5 1.0
 2
 3
 4
 5 6 1.0 7 1.0 8 1.0
 6
 7
 8 9 1.0
 9

