%chk=E:\2021chun\c2h6.chk
# hf/3-21g geom=connectivity

Title Card Required

0 1
 C                 -3.75266497   -0.11727079    0.00000000
 H                 -3.39601054   -1.12608079    0.00000000
 H                 -3.39599213    0.38712740   -0.87365150
 H                 -4.82266497   -0.11725760    0.00000000
 C                 -3.23932275    0.60868549    1.25740497
 H                 -2.16932456    0.60697842    1.25838332
 H                 -3.59437931    1.61805850    1.25642758
 H                 -3.59759171    0.10541749    2.13105517

 1 2 1.0 3 1.0 4 1.0 5 1.0
 2
 3
 4
 5 6 1.0 7 1.0 8 1.0
 6
 7
 8

