%chk=w32_64.chk
%nproc=4
%mem=1gb
#p  hf/6-31g** 5d 7f pop=npa charge nosymm 

Atom number=9

0   1
o     8.39232500  -11.81294100  -11.20048300
o     9.47377200   -7.99718800  -10.91804100
o     8.53887600   -6.26110200  -12.94835200
h     8.17527600  -12.53781500  -10.61423900
h     9.25215400  -11.51410000  -10.90447500
h     9.99752000   -8.79562700  -10.85158800
h     9.62339000   -7.54235600  -10.08920100
h     8.88003200   -6.84913600  -12.27451100
h     9.27672300   -6.12295800  -13.54226400

   10.70601700   -10.84886200   -10.09151200    -1.035697   
   11.52140700   -11.32028000    -9.92081200     0.520608   
   10.56779700   -10.31688300    -9.30784900     0.515624   
    8.69324600   -14.06927200    -9.54711300    -1.009926   
    8.22009000   -13.73274200    -8.78612500     0.499922   
    8.55280200   -15.01565900    -9.51778200     0.507893   
    7.25028400    -9.85962700   -13.10345600    -1.024266   
    7.12066000   -10.22147300   -13.98009600     0.515186   
    7.34148400   -10.62674400   -12.53826100     0.515422   
    5.57039200   -12.76004100   -10.73380700    -1.050024   
    4.64270800   -12.82782700   -10.50788800     0.521386   
    5.98375200   -12.40517000    -9.94676700     0.506414   
    6.96619300    -9.24779500   -10.27430500    -1.032359   
    6.97515200    -9.84501600   -11.02228900     0.514165   
    7.68437500    -8.63847200   -10.44509800     0.518479   
    6.94264200   -11.82938100    -8.37104400    -1.052762   
    7.49557400   -12.09105200    -7.63481900     0.521035   
    7.30746100   -10.99284000    -8.65972800     0.525545   
    9.73971400   -14.56021900   -13.08413600    -1.002885   
    9.43668300   -13.92087600   -12.43943000     0.521542   
   10.65270700   -14.32297400   -13.24658400     0.498770   
   10.08491200    -9.60299700   -13.69441000    -1.054902   
    9.83796300    -9.87791400   -14.57739800     0.517977   
    9.26710800    -9.62837000   -13.19763500     0.522623   
    8.45158600   -10.63557900   -15.68593100    -1.032188   
    8.12503500   -10.40685600   -16.55615200     0.479820   
    9.26218900   -11.11660800   -15.85256800     0.534069   
    4.03914200   -11.22426200   -12.80441000    -0.992133   
    4.52484400   -12.04760900   -12.75517900     0.480184   
    4.43211900   -10.75753900   -13.54195600     0.504586   
    5.58475400   -15.59216500   -11.46985700    -1.012936   
    4.67850300   -15.34832000   -11.65822100     0.504954   
    6.00308300   -14.77354000   -11.20323800     0.525721   
    8.80125300   -12.42587700    -6.49729400    -0.985176   
    9.05563400   -11.74898300    -5.87012700     0.500614   
    8.93949600   -13.24990100    -6.03027800     0.508291   
   10.55231000    -9.06017800    -7.76572800    -0.979947   
   10.02956000    -9.45263300    -7.06648400     0.500341   
   10.05764900    -8.28393300    -8.02837800     0.493696   
    8.49193200   -14.15961800   -15.71102400    -0.982261   
    8.84394200   -15.04372000   -15.81439900     0.479882   
    8.91834800   -13.82211300   -14.92331100     0.495008   
   10.67520400   -11.92516500   -15.81919300    -0.983713   
   11.14537300   -12.25971900   -15.05548700     0.505479   
   10.76936300   -12.61225500   -16.47894500     0.512532   
    7.75934500   -16.50496800   -13.24602100    -1.011239   
    7.30791900   -16.21113700   -12.45474900     0.492592   
    8.53729200   -15.94975700   -13.29868100     0.497341   
   13.45756400   -11.77328400    -9.77402900    -0.999332   
   13.90888600   -10.99620700   -10.10371500     0.512801   
   14.15077500   -12.42363500    -9.66118300     0.507583   
    5.59138000   -15.53348800    -8.70021700    -1.016163   
    6.30927900   -16.07072600    -8.36520800     0.483053   
    5.47625800   -15.82393600    -9.60499200     0.523726   
    5.33975500   -11.21224200   -15.47451800    -0.976012   
    5.88007800   -10.45867400   -15.71204500     0.486289   
    5.48955700   -11.84570000   -16.17631800     0.496485   
   12.99603100   -14.71385000   -11.21003600    -0.977833   
   12.28642000   -15.16188400   -10.74965500     0.505870   
   13.63565900   -14.51236000   -10.52702100     0.463809   
    4.64125800    -8.13827800   -12.67114500    -0.989717   
    4.59780900    -7.27204200   -12.26619800     0.487556   
    5.57649800    -8.33840700   -12.70996700     0.496916   
    8.96114000   -17.01674000    -9.27547400    -0.992057   
    8.67358400   -17.21906300    -8.38518800     0.509180   
    8.30255300   -17.42337500    -9.83862800     0.510293   
   12.89002300    -9.69060100   -13.75112800    -0.998393   
   13.48843600    -9.84590600   -13.02036500     0.466984   
   12.01714600    -9.74274000   -13.36176900     0.516040   
    4.90696400    -7.91001400    -9.13003900    -1.010464   
    4.06352000    -8.02650500    -9.56737800     0.476424   
    5.42273000    -8.67097400    -9.39679100     0.517552   
    2.95472700   -12.70244600    -9.87570600    -0.991473   
    3.06405400   -13.50484100    -9.36536900     0.501887   
    2.73844800   -12.03288300    -9.22675300     0.510487   
    4.21076800   -13.33060500    -7.55459800    -1.029267   
    4.96378100   -12.74526800    -7.47346000     0.497876   
    4.58348800   -14.16178800    -7.84862000     0.519667   
   11.47149500   -15.35531600    -7.51801600    -1.019724   
   10.86440300   -15.35575000    -8.25806500     0.475311   
   11.90753800   -14.50454200    -7.56581200     0.514632   
   12.81376400   -13.01846700    -7.36632400    -0.995900   
   12.48190000   -12.41713800    -6.69961300     0.499354   
   12.65515000   -12.56816600    -8.19596500     0.511038   
   11.32445200   -17.01159200   -10.76277000    -1.001922   
   11.71654500   -17.86330600   -10.57021200     0.487648   
   10.44278000   -17.06436100   -10.39385000     0.509505   


