%chk=w19_1.chk
%nproc=6
%mem=1gb
#p  hf/6-31g(d) pop=npa charge nosymm Guess=read 

Atom number=33

0   1
o    -7.13594633    1.10769046    0.05118983
o    -4.85275612    0.23106677    1.24968761
o    -6.37476979   -1.29933074   -0.27154941
o    -7.39552696   -0.44368656    2.06767184
o    -2.75537422    0.86053216   -1.83711762
o    -3.65414221   -1.40137688   -0.72850091
o    -2.32648509    0.48762638    0.77299113
o    -5.24592673    0.61137738   -1.49703182
o    -1.18082912   -1.23365486   -1.13367028
o     0.03100394   -0.09685164    1.14006809
o    -0.46073452    1.40157920   -1.13733174
h    -2.42222117    1.74670766   -1.67805151
h    -2.01842750    0.24913933   -1.90573495
h    -0.58752867   -0.50357296   -1.32491618
h    -0.67502889   -2.04631851   -1.06056819
h    -3.30191739   -0.91639714   -1.47838913
h    -2.93985475   -1.85957139   -0.27966772
h    -2.70323951    0.08323622   -0.01194499
h    -3.02461052    0.89988650    1.28705579
h    -0.46161779   -0.67207022    0.55011263
h    -0.58163132    0.41754047    1.67080229
h    -0.51762238    1.14088887   -0.21515803
h     0.43937205    1.66682322   -1.33994902
h    -5.57217482   -1.59382187   -0.70826017
h    -6.81314147   -0.64209356   -0.81695711
h    -6.28946274    0.66777230    0.15860284
h    -7.12855713    1.62236177   -0.75915506
h    -5.65517282    0.39336168    1.75107348
h    -4.88215224   -0.65273708    0.87602115
h    -4.67507327    0.34960373   -0.77094580
h    -4.70922881    0.84342237   -2.25841902
h    -7.77363852    0.35027750    1.68263584
h    -7.31730218   -1.12106214    1.39191803

    2.04621781     1.21304781    -0.27479707    -1.036976   
    2.83359286     0.66559293    -0.31877078     0.520717   
    1.62974115     1.10624896     0.58353923     0.508179   
    3.82510461    -0.53159862     0.50344234     0.501129   
    3.74572541    -1.04650818    -0.30288706    -1.011936   
    4.60520384    -1.40101032    -0.54210465     0.516564   
    4.84476012     0.33216863    -1.17454249     0.518579   
    5.77665124     0.19943111    -0.98596966    -1.055603   
    6.06471359     0.83881636    -0.33037330     0.541667   
    4.09607540     1.20371756     1.43057668     0.497636   
    4.33401172     1.53461569     0.56138583    -1.011863   
    3.69799506     2.19923751     0.28686688     0.523055   
    1.43570595    -0.59562361    -0.17713611     0.506103   
    1.23053521    -1.30525145    -0.79027011    -1.036887   
    2.04548113    -1.71393780    -1.09100021     0.511659   
    2.62569435     0.09878318     1.88272309    -1.014811   
    3.31286027    -0.38562134     2.34614004     0.491449   
    1.76644012    -0.25419569     2.12497932     0.539651   
    7.16719132    -0.63646440     0.11607024     0.510662   
    7.45769659    -0.13343136     0.88037676    -1.019305   
    8.36409151     0.15409687     0.74855961     0.501734   
    7.49668784    -0.29115118    -1.70568008     0.517037   
    8.38659354    -0.38239829    -1.35733856    -1.007951   
    9.00782872    -0.46608196    -2.08443133     0.482230   


