%chk=w19_4.chk
%nproc=6
%mem=1gb
#p  hf/6-31g(d) pop=npa charge nosymm Guess=read 

Atom number=24

0   1
o     2.04621781    1.21304781   -0.27479707
o     1.23053521   -1.30525145   -0.79027011
o     2.62569435    0.09878318    1.88272309
o     3.74572541   -1.04650818   -0.30288706
o     5.77665124    0.19943111   -0.98596966
o     4.33401172    1.53461569    0.56138583
o     7.45769659   -0.13343136    0.88037676
o     8.38659354   -0.38239829   -1.35733856
h     2.83359286    0.66559293   -0.31877078
h     1.62974115    1.10624896    0.58353923
h     3.82510461   -0.53159862    0.50344234
h     4.60520384   -1.40101032   -0.54210465
h     4.84476012    0.33216863   -1.17454249
h     6.06471359    0.83881636   -0.33037330
h     4.09607540    1.20371756    1.43057668
h     3.69799506    2.19923751    0.28686688
h     1.43570595   -0.59562361   -0.17713611
h     2.04548113   -1.71393780   -1.09100021
h     3.31286027   -0.38562134    2.34614004
h     1.76644012   -0.25419569    2.12497932
h     7.16719132   -0.63646440    0.11607024
h     8.36409151    0.15409687    0.74855961
h     7.49668784   -0.29115118   -1.70568008
h     9.00782872   -0.46608196   -2.08443133

   -2.75537422     0.86053216    -1.83711762    -1.031354   
   -2.42222117     1.74670766    -1.67805151     0.535493   
   -2.01842750     0.24913933    -1.90573495     0.507015   
   -0.58752867    -0.50357296    -1.32491618     0.534265   
   -1.18082912    -1.23365486    -1.13367028    -1.050740   
   -0.67502889    -2.04631851    -1.06056819     0.525289   
   -3.30191739    -0.91639714    -1.47838913     0.525337   
   -3.65414221    -1.40137688    -0.72850091    -1.015236   
   -2.93985475    -1.85957139    -0.27966772     0.516627   
   -2.70323951     0.08323622    -0.01194499     0.512017   
   -2.32648509     0.48762638     0.77299113    -1.064699   
   -3.02461052     0.89988650     1.28705579     0.526908   
   -0.46161779    -0.67207022     0.55011263     0.535627   
    0.03100394    -0.09685164     1.14006809    -1.053100   
   -0.58163132     0.41754047     1.67080229     0.528970   
   -0.51762238     1.14088887    -0.21515803     0.516235   
   -0.46073452     1.40157920    -1.13733174    -1.042719   
    0.43937205     1.66682322    -1.33994902     0.526487   
   -5.57217482    -1.59382187    -0.70826017     0.516794   
   -6.37476979    -1.29933074    -0.27154941    -1.042298   
   -6.81314147    -0.64209356    -0.81695711     0.526528   
   -6.28946274     0.66777230     0.15860284     0.524984   
   -7.13594633     1.10769046     0.05118983    -1.043333   
   -7.12855713     1.62236177    -0.75915506     0.499510   
   -5.65517282     0.39336168     1.75107348     0.531800   
   -4.85275612     0.23106677     1.24968761    -1.043971   
   -4.88215224    -0.65273708     0.87602115     0.521099   
   -4.67507327     0.34960373    -0.77094580     0.515882   
   -5.24592673     0.61137738    -1.49703182    -1.037471   
   -4.70922881     0.84342237    -2.25841902     0.507190   
   -7.77363852     0.35027750     1.68263584     0.514071   
   -7.39552696    -0.44368656     2.06767184    -1.033010   
   -7.31730218    -1.12106214     1.39191803     0.517099   


