%nproc=24
%mem=4GB
%chk=Pro-His-Val.chk
#p b3lyp/6-31g** opt

Title Card Required

0 1
 N                 -1.40395230   -1.59808968    0.00000000
 H                 -0.40439230   -1.62775568    0.00000000
 C                 -2.09090630   -0.32227768    0.00000000
 H                 -2.71573930   -0.24547468   -0.88982300
 C                 -2.97752930   -0.17615568    1.23214100
 C                 -1.10042730    0.83333332    0.00000000
 H                 -3.72176430   -0.97247768    1.24137300
 H                 -2.36475630   -0.24180368    2.13119600
 C                 -3.73695830    1.12594132    1.32108500
 O                  0.13649870    0.60184832    0.00000000
 N                 -4.58714830    1.41174232    2.38296700
 C                 -3.77383630    2.20354532    0.49245500
 H                 -4.77797530    0.80793532    3.16979800
 C                 -5.10133930    2.61083332    2.18249600
 N                 -4.62765330    3.09606932    1.06166200
 H                 -3.28414430    2.44345232   -0.45133900
 H                 -5.80124930    3.03137332    2.90455700
 N                 -1.58870348    2.21987087    0.00000000
 C                 -2.62275527    2.70557164    0.90586735
 C                 -1.08957641    3.24140763   -0.90151814
 H                 -2.18043998    2.92861941    1.87679790
 H                 -3.39108544    1.94151115    1.02410035
 C                 -3.13759101    3.93175844    0.21203089
 C                 -2.04164362    4.36750924   -0.73090088
 H                 -1.25541008    2.92928732   -1.93262403
 C                  0.40068023    3.44233833   -0.66647153
 H                 -3.35699028    4.70270455    0.95068280
 H                 -4.04696589    3.68498801   -0.33591186
 H                 -1.52360675    5.23052598   -0.31264437
 H                 -2.47578860    4.63654759   -1.69383237
 O                  0.99693708    2.76241709    0.20860278
 C                 -2.17639594   -2.84878182    0.00000000
 C                 -1.49360158   -4.16492577    0.34357296
 O                 -3.40218908   -2.83124595   -0.28406848
 N                 -2.42998104   -5.26918166    0.28513932
 H                 -1.08067150   -4.09087389    1.34960727
 C                 -0.34611685   -4.36549211   -0.64064012
 H                 -3.38547643   -5.10217656    0.04195598
 H                  0.18501442   -5.28578822   -0.39762911
 C                 -0.90222100   -4.45892380   -2.05755376
 C                  0.61480744   -3.18491773   -0.54848363
 H                 -1.43313074   -3.53873733   -2.30146680
 H                 -0.08242454   -4.60228935   -2.76145656
 H                 -1.58915254   -5.30261848   -2.12392097
 H                  1.01254815   -3.11770126    0.46412874
 H                  1.43520710   -3.32777814   -1.25178713
 H                  0.08446792   -2.26425340   -0.79183008
 O                  1.12329052    4.40376089   -1.44003538
 H                  1.72800915    4.88446768   -0.87009121
 H                 -2.12070995   -6.19826758    0.48799577

 1 2 1.0 3 1.0 32 1.0
 2
 3 4 1.0 5 1.0 6 1.0
 4
 5 7 1.0 8 1.0 9 1.0
 6 10 2.0 18 1.0
 7
 8
 9 11 1.0 12 2.0
 10
 11 13 1.0 14 1.0
 12 15 1.0 16 1.0
 13
 14 15 2.0 17 1.0
 15
 16
 17
 18 19 1.0 20 1.0
 19 21 1.0 22 1.0 23 1.0
 20 24 1.0 25 1.0 26 1.0
 21
 22
 23 24 1.0 27 1.0 28 1.0
 24 29 1.0 30 1.0
 25
 26 31 2.0 48 1.0
 27
 28
 29
 30
 31
 32 33 1.0 34 2.0
 33 35 1.0 36 1.0 37 1.0
 34
 35 38 1.0 50 1.0
 36
 37 39 1.0 40 1.0 41 1.0
 38
 39
 40 42 1.0 43 1.0 44 1.0
 41 45 1.0 46 1.0 47 1.0
 42
 43
 44
 45
 46
 47
 48 49 1.0
 49
 50

