%nprocshared=12
%mem=5GB
#p M062X/6-31g** 5D 7F

lsqc{dis=3.0 frag=read charge=none}

0 1
 C                 12.98677500   -0.51314500   -1.81705000
 C                 11.87201900   -1.02213700   -0.87032300
 N                 14.02299800    0.27230900   -1.10772900
 H                 12.46240800    0.13648400   -2.53052900
 C                 13.57217300   -1.68466200   -2.56040300
 O                 10.70924900   -1.09636900   -1.27416300
 C                 13.67740800    1.44381200   -0.47677000
 H                 14.99283300    0.15184000   -1.37968200
 H                 12.74481200   -2.24624200   -3.06321400
 H                 14.10789000   -2.38641600   -1.87523200
 H                 14.28902900   -1.34037900   -3.34625300
 O                 12.49785500    1.74877600   -0.25895000
 C                 14.80323100    2.33093800   -0.02451100
 H                 14.38249300    3.17789200    0.57233700
 H                 15.53248900    1.77109100    0.61009900
 H                 15.34122800    2.75124300   -0.90972500
 N                 12.24586300   -1.38290400    0.38246700
 C                 11.24661600   -1.86670300    1.35635700
 H                 13.21864000   -1.29831300    0.65026000
 C                 10.19196000   -0.78588800    1.72908600
 H                 10.66263600   -2.66896900    0.88906900
 C                 11.87796300   -2.38896000    2.61885400
 O                  9.03972800   -1.12990900    2.00517800
 N                 10.62477100    0.49857400    1.75973500
 H                 11.06840700   -2.73078400    3.31226600
 H                 12.54532500   -3.25875700    2.40086100
 H                 12.47721500   -1.60295800    3.14044200
 C                  9.67929400    1.61121500    1.98639900
 H                 11.52341700    0.72905700    1.34718500
 C                  8.65322600    1.74849500    0.82901400
 H                  9.07571300    1.37863100    2.87033200
 C                 10.38779800    2.92428700    2.18492700
 N                  9.15717500    1.64286800   -0.42411200
 O                  7.45681600    1.93595700    1.06634400
 H                  9.62784500    3.73931600    2.27946000
 H                 11.00139400    2.90390800    3.11881700
 H                 11.06184600    3.16230700    1.32304200
 C                  8.26755800    1.63258700   -1.60211700
 H                 10.15320600    1.49618900   -0.55297300
 C                  7.23061900    0.47529600   -1.53677900
 H                  7.65972000    2.54561200   -1.60366900
 C                  9.03900000    1.53811100   -2.89173000
 N                  7.71431300   -0.73560200   -1.17650900
 O                  6.04311400    0.68700100   -1.80170800
 H                  8.31923400    1.47882500   -3.74555300
 H                  9.68202200    2.44104800   -3.03488400
 H                  9.69257200    0.62899200   -2.91284300
 C                  6.81634100   -1.89697400   -1.02272300
 H                  8.71741000   -0.86647100   -1.06259100
 C                  5.71765500   -1.65073400    0.04856300
 H                  6.25726700   -2.05397500   -1.95402800
 C                  7.57448900   -3.15110600   -0.67420100
 O                  4.54214000   -1.95320100   -0.18655000
 H                  6.84925200   -3.99044900   -0.53362500
 H                  8.28148600   -3.42723500   -1.49478400
 H                  8.16166100   -3.02534100    0.27092400
 N                  6.12981100   -1.10265800    1.21221100
 C                  5.16522800   -0.76635000    2.27649700
 H                  7.12166700   -0.94864100    1.38594500
 C                  4.09130000    0.24763100    1.79372500
 H                  4.59154100   -1.66161800    2.54854300
 C                  5.85114200   -0.21584500    3.49939500
 O                  2.89919000    0.07127500    2.07299700
 N                  4.54432100    1.29920600    1.07805300
 H                  5.08056900    0.04758200    4.26513900
 H                  6.54564400   -0.97419400    3.93814100
 H                  6.44340000    0.70276200    3.25580800
 C                  3.61119800    2.29133800    0.51319400
 H                  5.54493400    1.42741800    0.93350000
 C                  2.59714000    1.64909500   -0.47370300
 H                  2.98531200    2.70378300    1.31491100
 C                  4.33856800    3.41042500   -0.18541500
 O                  1.39829300    1.95084100   -0.41898100
 H                  3.59138900    4.11460800   -0.62732200
 H                  4.97861300    3.97603900    0.53565800
 H                  4.99364500    3.02059000   -1.00585200
 N                  3.10737900    0.77081600   -1.36305300
 C                  2.23059600    0.04353500   -2.29891000
 H                  4.11351000    0.61147700   -1.40556500
 C                  1.17221600   -0.82052700   -1.55858800
 H                  1.63716900    0.76126400   -2.87982700
 C                  3.01748600   -0.83600900   -3.23533600
 N                  1.62484200   -1.54727500   -0.51491500
 O                 -0.00664300   -0.82103900   -1.93519800
 H                  2.30990900   -1.39585700   -3.89505100
 H                  3.69440400   -0.22151200   -3.87844600
 H                  3.64307600   -1.57410300   -2.67118900
 C                  0.70094300   -2.34737400    0.30890300
 H                  2.62003000   -1.55795800   -0.29213400
 C                 -0.39721600   -1.47304600    0.97654400
 H                  0.14161200   -3.03928000   -0.33391500
 C                  1.42964400   -3.12381400    1.37460900
 O                 -1.57809400   -1.84386800    0.96963400
 H                  0.68641600   -3.68088000    1.99631100
 H                  2.13360500   -3.86018000    0.91462900
 H                  2.01889800   -2.44410300    2.04197500
 N                  0.02419600   -0.32235900    1.54201100
 C                 -0.93256900    0.62758600    2.13815000
 H                  1.02028000   -0.10419700    1.57785000
 C                 -1.97932300    1.13310500    1.10666800
 H                 -1.53100300    0.11651600    2.90340300
 C                 -0.23390500    1.81291500    2.75218900
 O                 -3.17738000    1.19084700    1.41192900
 N                 -1.49625500    1.49421500   -0.10088900
 H                 -0.99821900    2.52180300    3.15518100
 H                  0.42996100    1.48849200    3.59095000
 H                  0.39340100    2.35162600    1.99652600
 C                 -2.40088800    1.92284400   -1.18237000
 H                 -0.48996600    1.49601800   -0.27050500
 C                 -3.42160200    0.81629500   -1.57091900
 H                 -3.02496300    2.75530600   -0.83219400
 C                 -1.64100900    2.34405700   -2.41339000
 O                 -4.61036100    1.10385900   -1.76067500
 H                 -2.36726400    2.62294300   -3.21580000
 H                 -0.99348200    3.22838200   -2.19415000
 H                 -0.98811500    1.51596500   -2.79097100
 N                 -2.92262200   -0.43278600   -1.68405300
 C                 -3.79846900   -1.58172000   -1.97459400
 H                 -1.91956900   -0.59256100   -1.58772000
 C                 -4.88639300   -1.78702800   -0.88363100
 H                 -4.36866300   -1.38704800   -2.89210700
 C                 -3.01214300   -2.85778200   -2.12978600
 N                 -4.47048000   -1.68651400    0.39677200
 O                 -6.05508800   -2.03241400   -1.20743500
 H                 -3.71833100   -3.70459500   -2.31177900
 H                 -2.30927500   -2.78536200   -2.99588400
 H                 -2.41306800   -3.07987200   -1.20965600
 C                 -5.42972400   -1.78317300    1.51140900
 H                 -3.47966700   -1.56073700    0.60539000
 C                 -6.50421400   -0.65959300    1.46519100
 H                 -6.00585900   -2.71289700    1.41956400
 C                 -4.73905000   -1.74512900    2.84993600
 O                 -7.69162400   -0.91670700    1.69568100
 H                 -5.50760700   -1.78267900    3.66049900
 H                 -4.05374000   -2.62037700    2.96595200
 H                 -4.13624200   -0.80878500    2.96918400
 N                 -6.05091700    0.57779200    1.16922200
 C                 -6.98405900    1.70915800    1.03236000
 H                 -5.05036000    0.74975600    1.07132400
 C                 -8.02192400    1.48486100   -0.10171300
 H                 -7.59155300    1.79656000    1.94219400
 C                 -6.25802400    3.00578600    0.78157000
 N                 -7.53931800    0.99160700   -1.26383800
 O                 -9.21347000    1.76475900    0.07453600
 H                 -7.00568000    3.82560000    0.64810500
 H                 -5.59687800    3.26118800    1.64586200
 H                 -5.62307300    2.94405900   -0.13912800
 C                 -8.45083900    0.72588300   -2.38980700
 H                 -6.53548000    0.86146100   -1.38966300
 C                 -9.45558800   -0.42525300   -2.09839400
 H                 -9.08638200    1.60519800   -2.55374600
 C                 -7.70250800    0.39987500   -3.65681700
 N                 -8.95609600   -1.49410100   -1.43572200
 O                -10.62720200   -0.34747300   -2.48511800
 H                 -8.43767900    0.18257500   -4.47023200
 H                 -7.06434600    1.26150300   -3.97204800
 H                 -7.04299800   -0.49400700   -3.52134200
 C                 -9.80741300   -2.65891900   -1.14728700
 H                 -7.96025100   -1.54900300   -1.22436700
 C                -10.87918200   -2.40522500   -0.04835400
 H                -10.39843800   -2.89686700   -2.04064200
 C                 -8.99858900   -3.86679500   -0.74731800
 N                -10.54795500   -1.49232800    0.90760700
 O                -11.93915700   -3.02988900   -0.07359600
 H                 -9.69374500   -4.71410200   -0.52753700
 H                 -8.30809500   -4.17119600   -1.57166100
 H                 -8.38262200   -3.66154000    0.16345700
 C                -11.46355900   -1.21027900    2.02096800
 H                 -9.58406400   -1.17118700    0.97783900
 C                -12.37758100    0.03264800    1.81394600
 H                -12.16368600   -2.05109000    2.09171100
 C                -10.74864400   -1.04716800    3.33944900
 O                -13.42064400    0.13005800    2.46259000
 H                -11.48503400   -0.73349800    4.11986800
 H                -10.28339900   -2.01334800    3.65323000
 H                 -9.93865000   -0.27858500    3.27603400
 N                -11.94815300    0.95777600    0.90599100
 C                -12.65979000    2.22951700    0.72356900
 H                -10.98348800    0.92013100    0.58204200
 C                -13.17024400    2.48162500   -0.72103500
 H                -13.56059500    2.17005300    1.34698600
 C                -11.85571000    3.43667500    1.14318400
 N                -12.85623700    1.54852200   -1.65688400
 O                -13.84250100    3.48637100   -0.96842600
 H                -12.42465100    4.36417700    0.88598400
 H                -11.67356600    3.42160900    2.24510100
 H                -10.86485700    3.46502700    0.62422700
 H                -12.20973800    0.78346400   -1.49922800
 H                -13.13786500    1.74014100   -2.60824200

 1 2 1.0 3 1.0 4 1.0 5 1.0
 2 6 2.0
 3 7 1.5 8 1.0
 4
 5 9 1.0 10 1.0 11 1.0
 6
 7 12 2.0 13 1.0
 8
 9
 10
 11
 12
 13 14 1.0 15 1.0 16 1.0
 14
 15
 16
 17 18 1.0 19 1.0
 18 20 1.0 21 1.0 22 1.0
 19
 20 23 2.0 24 1.5
 21
 22 25 1.0 26 1.0 27 1.0
 23
 24 28 1.0 29 1.0
 25
 26
 27
 28 30 1.0 31 1.0 32 1.0
 29
 30 33 1.5 34 2.0
 31
 32 35 1.0 36 1.0 37 1.0
 33 38 1.0 39 1.0
 34
 35
 36
 37
 38 40 1.0 41 1.0 42 1.0
 39
 40 43 1.5 44 2.0
 41
 42 45 1.0 46 1.0 47 1.0
 43 48 1.0 49 1.0
 44
 45
 46
 47
 48 50 1.0 51 1.0 52 1.0
 49
 50 53 2.0
 51
 52 54 1.0 55 1.0 56 1.0
 53
 54
 55
 56
 57 58 1.0 59 1.0
 58 60 1.0 61 1.0 62 1.0
 59
 60 63 2.0 64 1.5
 61
 62 65 1.0 66 1.0 67 1.0
 63
 64 68 1.0 69 1.0
 65
 66
 67
 68 70 1.0 71 1.0 72 1.0
 69
 70 73 2.0
 71
 72 74 1.0 75 1.0 76 1.0
 73
 74
 75
 76
 77 78 1.0 79 1.0
 78 80 1.0 81 1.0 82 1.0
 79
 80 83 1.5 84 2.0
 81
 82 85 1.0 86 1.0 87 1.0
 83 88 1.0 89 1.0
 84
 85
 86
 87
 88 90 1.0 91 1.0 92 1.0
 89
 90 93 2.0
 91
 92 94 1.0 95 1.0 96 1.0
 93
 94
 95
 96
 97 98 1.0 99 1.0
 98 100 1.0 101 1.0 102 1.0
 99
 100 103 2.0 104 1.5
 101
 102 105 1.0 106 1.0 107 1.0
 103
 104 108 1.0 109 1.0
 105
 106
 107
 108 110 1.0 111 1.0 112 1.0
 109
 110 113 2.0
 111
 112 114 1.0 115 1.0 116 1.0
 113
 114
 115
 116
 117 118 1.0 119 1.0
 118 120 1.0 121 1.0 122 1.0
 119
 120 123 1.5 124 2.0
 121
 122 125 1.0 126 1.0 127 1.0
 123 128 1.0 129 1.0
 124
 125
 126
 127
 128 130 1.0 131 1.0 132 1.0
 129
 130 133 2.0
 131
 132 134 1.0 135 1.0 136 1.0
 133
 134
 135
 136
 137 138 1.0 139 1.0
 138 140 1.0 141 1.0 142 1.0
 139
 140 143 1.5 144 2.0
 141
 142 145 1.0 146 1.0 147 1.0
 143 148 1.0 149 1.0
 144
 145
 146
 147
 148 150 1.0 151 1.0 152 1.0
 149
 150 153 1.5 154 2.0
 151
 152 155 1.0 156 1.0 157 1.0
 153 158 1.0 159 1.0
 154
 155
 156
 157
 158 160 1.0 161 1.0 162 1.0
 159
 160 163 1.5 164 2.0
 161
 162 165 1.0 166 1.0 167 1.0
 163 168 1.0 169 1.0
 164
 165
 166
 167
 168 170 1.0 171 1.0 172 1.0
 169
 170 173 2.0
 171
 172 174 1.0 175 1.0 176 1.0
 173
 174
 175
 176
 177 178 1.0 179 1.0
 178 180 1.0 181 1.0 182 1.0
 179
 180 183 1.5 184 2.0
 181
 182 185 1.0 186 1.0 187 1.0
 183 188 1.0 189 1.0
 184
 185
 186
 187
 188
 189

