%chk=0.chk
%nprocshared=6
#p hf/6-31g** geom=connectivity 5d 7f

lsqc{dis=3.0 frag=conn charge=none}

0 1
 C                -29.09345000   -0.47393000    0.20327600
 O                -29.28242100   -1.48399400    0.88879700
 N                -27.87173800   -0.07527600   -0.22117700
 H                -27.73657400    0.75496600   -0.79394000
 C                -26.63213000   -0.76680300    0.13535800
 C                -25.47836600    0.18133600   -0.28804400
 O                -25.69462800    1.18327300   -0.97783800
 N                -24.25169600   -0.17884100    0.15054000
 H                -24.09551500   -1.00685900    0.72211400
 C                -23.02702500    0.54642500   -0.19310200
 C                -21.85545400   -0.37109300    0.25047300
 O                -22.06012000   -1.38074000    0.93312900
 N                -20.63131800    0.02222300   -0.16321600
 H                -20.48497700    0.85672900   -0.72837100
 C                -19.39435100   -0.67332800    0.19868800
 C                -18.23975900    0.27381500   -0.22783300
 O                -18.46193400    1.28216600   -0.90698200
 N                -17.01160200   -0.09323100    0.19665100
 H                -16.85135600   -0.92926200    0.75600200
 C                -15.78606300    0.62996400   -0.15018200
 C                -14.61689100   -0.29797600    0.27953900
 O                -14.82659800   -1.31679400    0.94716200
 N                -13.39205300    0.09618000   -0.12912100
 H                -13.24168600    0.94019700   -0.67924700
 C                -12.15696000   -0.60931000    0.22074000
 C                -11.00036200    0.34150400   -0.19290300
 O                -11.22274500    1.36396800   -0.85075100
 N                 -9.77196200   -0.03819100    0.21837800
 H                 -9.61152000   -0.88750100    0.75752000
 C                 -8.54485200    0.68679200   -0.11962200
 C                 -7.37822100   -0.25603600    0.28444600
 O                 -7.59110700   -1.29047400    0.92666900
 N                 -6.15281700    0.14302800   -0.11701500
 H                 -5.99946400    1.00149700   -0.64355800
 C                 -4.91981200   -0.57605000    0.21229800
 C                 -3.76054100    0.38222900   -0.17620500
 O                 -3.98105700    1.42485500   -0.80234600
 N                 -2.53257000   -0.01398200    0.22012400
 H                 -2.37328600   -0.88109300    0.73056800
 C                 -1.30365200    0.71631500   -0.09962400
 C                 -0.13965400   -0.24421600    0.26899100
 O                 -0.35518400   -1.29945900    0.87552400
 N                  1.08636500    0.16362500   -0.12144700
 H                  1.24243100    1.04043100   -0.61601700
 C                  2.31720500   -0.57104300    0.18058000
 C                  3.47931300    0.39740200   -0.17269300
 O                  3.26158300    1.46389200   -0.75831600
 N                  4.70644000   -0.01745400    0.20679000
 H                  4.86390100   -0.90466400    0.68201400
 C                  5.93717600    0.72069800   -0.08700100
 C                  7.09865800   -0.25755100    0.24057700
 O                  6.88087500   -1.33548800    0.80489900
 N                  8.32536700    0.16146400   -0.13574800
 H                  8.48371700    1.05730800   -0.59408500
 C                  9.55415000   -0.58850300    0.13548500
 C                 10.71897900    0.39016000   -0.17820400
 O                 10.50453300    1.47996900   -0.72042500
 N                 11.94501800   -0.04292900    0.18437700
 H                 12.10006000   -0.94875900    0.62380300
 C                 13.17743000    0.70353600   -0.07985300
 C                 14.33678000   -0.28945200    0.20798900
 O                 14.11738400   -1.38794600    0.73034600
 N                 15.56430200    0.14098600   -0.15308400
 H                 15.72413000    1.05309600   -0.57738700
 C                 16.79114500   -0.62201500    0.08871600
 C                 17.95862900    0.36462500   -0.18692300
 O                 17.74835000    1.47368300   -0.69004400
 N                 19.18331000   -0.08415100    0.16202300
 H                 19.33493400   -1.00441500    0.57128800
 C                 20.41703600    0.66970900   -0.07304500
 C                 21.57505200   -0.33335500    0.18155900
 O                 21.35581500   -1.44781400    0.66848000
 N                 22.80346400    0.10723400   -0.16594200
 H                 22.96326900    1.03106400   -0.56353300
 C                 24.02803900   -0.66632200    0.05151800
 C                 25.19883800    0.32463000   -0.18933600
 O                 24.99600800    1.44763800   -0.66247200
 N                 26.42165400   -0.13716200    0.15324200
 H                 26.56670500   -1.06640800    0.54289800
 C                 27.65545600    0.62448200   -0.05325000
 C                 28.81446700   -0.38212700    0.17327100
 O                 28.60310300   -1.50808900    0.63465400
 N                 30.04349200    0.06820500   -0.16814900
 H                 30.20001600    1.00132300   -0.54320600
 C                 31.26344400   -0.71316400    0.03705400
 C                 32.44157400    0.27336600   -0.16856600
 O                 32.26212700    1.40482300   -0.61187200
 N                 33.66868400   -0.19911300    0.19002800
 H                -26.60421200   -0.90661100    1.22653800
 H                -22.98810700    0.68167900   -1.28443200
 H                -19.36790800   -0.80764100    1.29048100
 H                -15.75334000    0.77225300   -1.24077400
 H                -12.12950100   -0.75993000    1.31034600
 H                 -8.51687500    0.85156700   -1.20716200
 H                 -4.89194400   -0.75633300    1.29736300
 H                 -1.27937000    0.91571800   -1.18143200
 H                  2.34474200   -0.79136800    1.25823000
 H                  5.95955000    0.96257400   -1.16015300
 H                  9.58116100   -0.85305000    1.20315800
 H                 13.20009900    0.98840500   -1.14240300
 H                 16.81725400   -0.92808700    1.14526600
 H                 20.44187400    0.99241900   -1.12468600
 H                 24.05146100   -1.00811100    1.09715100
 H                 27.68293100    0.98084200   -1.09392000
 H                 31.27879500   -1.08252700    1.07374900
 N                -31.49099500   -0.30080200    0.05306000
 H                -30.20624800    0.62982800   -1.31135300
 H                 33.80671200   -1.14561400    0.51439200
 H                 34.47582300    0.38548200    0.01785500
 C                -30.26665900    0.44487200   -0.22820500
 C                -32.72116900    0.11134000   -0.38451800
 O                -32.89504000    1.13565500   -1.04979600
 H                -31.37353300   -1.13010900    0.62835600
 C                 31.41056800   -1.90122300   -0.88259600
 H                 30.50759300   -2.55876200   -0.80273200
 H                 32.30522200   -2.50221200   -0.58965800
 H                 31.52514000   -1.58567600   -1.94775100
 C                 27.81377900    1.82135000    0.85187500
 H                 26.92224100    2.49201200    0.75473400
 H                 28.72118000    2.40383200    0.55936300
 H                 27.91365200    1.51819300    1.92204200
 C                 24.17135000   -1.87746900   -0.83679000
 H                 23.27123000   -2.53523700   -0.73133800
 H                 25.07105400   -2.46732500   -0.53549500
 H                 24.27598700   -1.59022300   -1.91089700
 C                 20.57885600    1.89429100    0.79319700
 H                 19.68623500    2.56097100    0.68016500
 H                 21.48412900    2.46805200    0.47772800
 H                 20.68495300    1.62465400    1.87170900
 C                 16.93598100   -1.86190600   -0.75854500
 H                 16.03664400   -2.51689900   -0.63141600
 H                 17.83623800   -2.44050500   -0.43759500
 H                 17.04059800   -1.61055600   -1.84161200
 C                 13.33921500    1.95830700    0.74193500
 H                 12.44502900    2.61895700    0.60792000
 H                 14.24248200    2.52226300    0.40380600
 H                 13.44885400    1.72723500    1.82901200
 C                  9.70193700   -1.86000200   -0.66295200
 H                  8.80368200   -2.51125200   -0.51129600
 H                 10.60289800   -2.42420000   -0.31912300
 H                  9.80708900   -1.65060500   -1.75485300
 C                  6.09573500    2.00783900    0.68372400
 H                  5.19981600    2.66025100    0.52351300
 H                  6.99747600    2.56017100    0.32307100
 H                  6.20610900    1.82084900    1.77917100
 C                  2.46886300   -1.87382200   -0.56494200
 H                  1.57220600   -2.52068600   -0.38725600
 H                  3.37103700   -2.42111000   -0.19774400
 H                  2.57425900   -1.70909000   -1.66444400
 C                 -1.15129000    2.03340000    0.62007100
 H                 -2.04888600    2.67599200    0.43197900
 H                 -0.25035300    2.57401600    0.24017300
 H                 -1.04320000    1.89015000    1.72231800
 C                 -4.76353900   -1.90500900   -0.48450300
 H                 -5.65809500   -2.54786600   -0.28321600
 H                 -3.85963200   -2.43526100   -0.09713300
 H                 -4.65831900   -1.78067500   -1.58932000
 C                 -8.40086200    2.02695900    0.55800700
 H                 -9.29994900    2.65965300    0.34510500
 H                 -7.50006500    2.55845400    0.16514200
 H                 -8.29755100    1.91965700    1.66479000
 C                -11.99518200   -1.95629300   -0.43932200
 H                -12.88734100   -2.59684700   -0.22077400
 H                -11.08932800   -2.47208000   -0.03727400
 H                -11.88999000   -1.86186000   -1.54709700
 C                -15.65130700    1.98477700    0.49982400
 H                -16.55152100    2.60920800    0.26810400
 H                -14.75007900    2.51126200    0.10128700
 H                -15.55443600    1.90127500    1.60923500
 C                -19.22674100   -2.02976500   -0.44052200
 H                -20.11643600   -2.67039000   -0.21234200
 H                -18.31886300   -2.53544700   -0.03036300
 H                -19.12166000   -1.95194300   -1.54959200
 C                -22.90176900    1.90676100    0.44777200
 H                -23.80228600    2.52616200    0.20401200
 H                -21.99904100    2.43310200    0.05258200
 H                -22.81374300    1.83188700    1.55851600
 C                -26.46008000   -2.12084000   -0.50894700
 H                -27.34634800   -2.76572700   -0.27960400
 H                -25.54833200   -2.62343500   -0.10388300
 H                -26.35970700   -2.03874500   -1.61811700
 C                -30.16348500    1.77933200    0.47131100
 H                -29.24907000    2.32082700    0.12727200
 H                -30.11126300    1.65955600    1.58026300
 H                -31.05732900    2.40657200    0.22316200
 C                -33.88271900   -0.77805500   -0.01333300
 H                -33.98950100   -0.84355300    1.09623500
 H                -33.74102000   -1.80605700   -0.42567700
 H                -34.81863400   -0.34304300   -0.44128500

 1 2 2.0 3 1.5
 2
 3 4 1.0 5 1.0
 4
 5 6 1.0 89 1.0 178 1.0
 6 7 2.0 8 1.5
 7
 8 9 1.0 10 1.0
 9
 10 90 1.0 174 1.0
 11 12 2.0 13 1.5
 12
 13 14 1.0 15 1.0
 14
 15 16 1.0 91 1.0 170 1.0
 16 17 2.0 18 1.5
 17
 18 19 1.0 20 1.0
 19
 20 92 1.0 166 1.0
 21 22 2.0 23 1.5
 22
 23 24 1.0 25 1.0
 24
 25 26 1.0 93 1.0 162 1.0
 26 27 2.0 28 1.5
 27
 28 29 1.0 30 1.0
 29
 30 94 1.0 158 1.0
 31 32 2.0 33 1.5
 32
 33 34 1.0 35 1.0
 34
 35 36 1.0 95 1.0 154 1.0
 36 37 2.0 38 1.5
 37
 38 39 1.0 40 1.0
 39
 40 96 1.0 150 1.0
 41 42 2.0 43 1.5
 42
 43 44 1.0 45 1.0
 44
 45 46 1.0 97 1.0 146 1.0
 46 47 2.0 48 1.5
 47
 48 49 1.0 50 1.0
 49
 50 98 1.0 142 1.0
 51 52 2.0 53 1.5
 52
 53 54 1.0 55 1.0
 54
 55 56 1.0 99 1.0 138 1.0
 56 57 2.0 58 1.5
 57
 58 59 1.0 60 1.0
 59
 60 100 1.0 134 1.0
 61 62 2.0 63 1.5
 62
 63 64 1.0 65 1.0
 64
 65 66 1.0 101 1.0 130 1.0
 66 67 2.0 68 1.5
 67
 68 69 1.0 70 1.0
 69
 70 102 1.0 126 1.0
 71 72 2.0 73 1.5
 72
 73 74 1.0 75 1.0
 74
 75 76 1.0 103 1.0 122 1.0
 76 77 2.0 78 1.5
 77
 78 79 1.0 80 1.0
 79
 80 104 1.0 118 1.0
 81 82 2.0 83 1.5
 82
 83 84 1.0 85 1.0
 84
 85 86 1.0 105 1.0 114 1.0
 86 87 2.0 88 1.5
 87
 88 108 1.0 109 1.0
 89
 90
 91
 92
 93
 94
 95
 96
 97
 98
 99
 100
 101
 102
 103
 104
 105
 106 110 1.0 111 1.5 113 1.0
 107 110 1.0
 108
 109
 110 182 1.0
 111 112 2.0 186 1.0
 112
 113
 114 115 1.0 116 1.0 117 1.0
 115
 116
 117
 118 119 1.0 120 1.0 121 1.0
 119
 120
 121
 122 123 1.0 124 1.0 125 1.0
 123
 124
 125
 126 127 1.0 128 1.0 129 1.0
 127
 128
 129
 130 131 1.0 132 1.0 133 1.0
 131
 132
 133
 134 135 1.0 136 1.0 137 1.0
 135
 136
 137
 138 139 1.0 140 1.0 141 1.0
 139
 140
 141
 142 143 1.0 144 1.0 145 1.0
 143
 144
 145
 146 147 1.0 148 1.0 149 1.0
 147
 148
 149
 150 151 1.0 152 1.0 153 1.0
 151
 152
 153
 154 155 1.0 156 1.0 157 1.0
 155
 156
 157
 158 159 1.0 160 1.0 161 1.0
 159
 160
 161
 162 163 1.0 164 1.0 165 1.0
 163
 164
 165
 166 167 1.0 168 1.0 169 1.0
 167
 168
 169
 170 171 1.0 172 1.0 173 1.0
 171
 172
 173
 174 175 1.0 176 1.0 177 1.0
 175
 176
 177
 178 179 1.0 180 1.0 181 1.0
 179
 180
 181
 182 183 1.0 184 1.0 185 1.0
 183
 184
 185
 186 187 1.0 188 1.0 189 1.0
 187
 188
 189

